Circuit: * C:\Users\pino5\Documents\PlatformIO\TrasfCurrentStudio\TrasfCurrentStudio2.asc

WARNING: Less than two connections to node VDRIVESW.  This node is used by V3.
Direct Newton iteration for .op point succeeded.
.step load=0.01
.step load=0.0316228
.step load=0.1
.step load=0.316228
.step load=1
.step load=3.16228
.step load=10
.step load=20

Date: Sun Apr 23 08:33:59 2023
Total elapsed time: 0.801 seconds.

tnom = 27
temp = 27
method = modified trap
totiter = 2121
traniter = 2116
tranpoints = 1059
accept = 1055
rejected = 4
matrix size = 15
fillins = 4
solver = Normal
Matrix Compiler1: 1.24 KB object code size  0.2/0.2/[0.1]
Matrix Compiler2: 1.24 KB object code size  0.1/0.2/[0.1]

