Circuit: * C:\Users\pino5\Documents\PlatformIO\TrasfCurrentStudio\TrasfCurrentStudio.asc

Direct Newton iteration for .op point succeeded.
.step load=5
.step load=10
.step load=15
.step load=20

Date: Sat Apr 22 14:40:52 2023
Total elapsed time: 0.364 seconds.

tnom = 27
temp = 27
method = modified trap
totiter = 4647
traniter = 4642
tranpoints = 1902
accept = 1543
rejected = 359
matrix size = 16
fillins = 4
solver = Normal
Matrix Compiler1:      77 opcodes  0.3/0.1/[0.2]
Matrix Compiler2: 1.34 KB object code size  0.1/0.2/[0.1]

